Version 4
SHEET 1 1884 2248
WIRE -2480 -80 -2512 -80
WIRE -2224 -80 -2480 -80
WIRE -2480 -48 -2480 -80
WIRE -2224 -48 -2224 -80
WIRE -2224 64 -2224 32
WIRE -2480 80 -2480 32
WIRE -2384 80 -2480 80
WIRE -2480 112 -2480 80
WIRE -2384 176 -2384 160
WIRE -2224 176 -2224 144
WIRE -2480 272 -2480 192
WIRE -2480 272 -2512 272
WIRE -2224 272 -2224 256
WIRE -2224 272 -2480 272
WIRE -1312 304 -1472 304
WIRE -1056 304 -1232 304
WIRE -1472 432 -1472 304
WIRE -1312 432 -1472 432
WIRE -1200 432 -1248 432
WIRE -2704 528 -2704 480
WIRE -1296 560 -1296 544
WIRE -1232 560 -1296 560
WIRE -1296 608 -1296 560
WIRE -1280 608 -1296 608
WIRE -1296 624 -1296 608
WIRE -1280 640 -1280 608
WIRE -1680 656 -1808 656
WIRE -1472 656 -1472 432
WIRE -1472 656 -1600 656
WIRE -1312 656 -1472 656
WIRE -1200 656 -1200 432
WIRE -1200 656 -1264 656
WIRE -1184 656 -1200 656
WIRE -1056 656 -1056 304
WIRE -1056 656 -1104 656
WIRE -784 656 -1056 656
WIRE -1680 688 -1808 688
WIRE -1472 688 -1600 688
WIRE -1312 688 -1472 688
WIRE -1200 688 -1264 688
WIRE -1184 688 -1200 688
WIRE -1056 688 -1104 688
WIRE -944 688 -1056 688
WIRE -1296 752 -1296 720
WIRE -944 784 -944 688
WIRE -784 784 -784 656
WIRE -2688 800 -2688 752
WIRE -1280 800 -1280 704
WIRE -1472 880 -1472 688
WIRE -1280 880 -1472 880
WIRE -1200 880 -1200 688
WIRE -1200 880 -1216 880
WIRE -944 896 -944 864
WIRE -784 896 -784 864
WIRE -1472 1024 -1472 880
WIRE -1296 1024 -1472 1024
WIRE -1056 1024 -1056 688
WIRE -1056 1024 -1216 1024
FLAG -2512 -80 AIN+
FLAG -2512 272 AIN-
FLAG -2704 608 0
FLAG -2704 480 VREF
FLAG -1296 544 VREF
FLAG -944 896 0
FLAG -784 896 0
FLAG -2688 880 0
FLAG -2688 752 VBIAS
FLAG -2384 176 0
FLAG -1808 656 AIN+
FLAG -1808 688 AIN-
FLAG -1280 800 VBIAS
FLAG -1296 752 0
FLAG -1232 624 0
SYMBOL voltage -2224 48 R0
WINDOW 123 71 66 Left 2
WINDOW 39 239 68 Left 2
SYMATTR Value2 AC 0.7 0
SYMATTR SpiceLine Rser=0
SYMATTR InstName V3
SYMATTR Value SINE(0 0.6 1e5 0 0 0 1e6)
SYMBOL voltage -2704 512 R0
WINDOW 0 32 56 VTop 2
WINDOW 3 -32 56 VBottom 2
WINDOW 123 0 0 Left 0
WINDOW 39 0 0 Left 0
SYMATTR InstName V4
SYMATTR Value 3.3
SYMBOL res -928 880 R180
WINDOW 0 -73 60 Left 2
WINDOW 3 -117 25 Left 2
SYMATTR InstName R13
SYMATTR Value {R_LOAD}
SYMBOL res -768 880 R180
WINDOW 0 -73 60 Left 2
WINDOW 3 -122 28 Left 2
SYMATTR InstName R4
SYMATTR Value {R_LOAD}
SYMBOL res -1584 640 R90
WINDOW 0 -81 81 VBottom 2
WINDOW 3 -74 100 VTop 2
SYMATTR InstName R1
SYMATTR Value {R_FRONT}
SYMBOL res -1584 672 R90
WINDOW 0 68 104 VBottom 2
WINDOW 3 68 101 VTop 2
SYMATTR InstName R2
SYMATTR Value {R_FRONT}
SYMBOL res -1216 288 R90
WINDOW 0 0 56 VBottom 2
WINDOW 3 32 56 VTop 2
SYMATTR InstName R5
SYMATTR Value {R_FB}
SYMBOL res -1200 1008 R90
WINDOW 0 0 56 VBottom 2
WINDOW 3 32 56 VTop 2
SYMATTR InstName R10
SYMATTR Value {R_FB}
SYMBOL voltage -2688 784 R0
WINDOW 0 32 56 VTop 2
WINDOW 3 -32 56 VBottom 2
WINDOW 123 0 0 Left 0
WINDOW 39 0 0 Left 0
SYMATTR InstName V1
SYMATTR Value 1.4
SYMBOL cap -1248 416 R90
WINDOW 0 0 32 VBottom 2
WINDOW 3 32 32 VTop 2
SYMATTR InstName C1
SYMATTR Value {C_FB}
SYMBOL cap -1216 864 R90
WINDOW 0 0 32 VBottom 2
WINDOW 3 32 32 VTop 2
SYMATTR InstName C2
SYMATTR Value {C_FB}
SYMBOL voltage -2384 64 R0
WINDOW 123 0 0 Left 0
WINDOW 39 0 0 Left 0
SYMATTR InstName V6
SYMATTR Value 1.45
SYMBOL res -2496 -64 R0
SYMATTR InstName R7
SYMATTR Value 100k
SYMBOL res -2496 96 R0
SYMATTR InstName R8
SYMATTR Value 100k
SYMBOL res -2240 -64 R0
SYMATTR InstName R9
SYMATTR Value 50
SYMBOL res -2240 160 R0
SYMATTR InstName R11
SYMATTR Value 50
SYMBOL THS4521 -1280 672 R0
SYMATTR InstName U1
SYMBOL cap -1248 560 R0
SYMATTR InstName C3
SYMATTR Value 0.1µ
SYMBOL res -1088 640 R90
WINDOW 0 -20 28 VBottom 2
WINDOW 3 -79 13 VTop 2
SYMATTR InstName R12
SYMATTR Value {R_OUT}
SYMBOL res -1088 672 R90
WINDOW 0 34 111 VBottom 2
WINDOW 3 44 16 VTop 2
SYMATTR InstName R14
SYMATTR Value {R_OUT}
TEXT -2400 1008 Left 2 !.tran 0 1e-5 0 1e-10
TEXT -2384 960 Left 2 ;.ac oct 1e3 1e3 15e6
TEXT -1520 128 Left 2 !.param C_FB=1.5nF R_FB=1k R_FRONT=1k R_OUT=50 C_OUT=2.2nF R_LOAD=100k V_CM=1.45 V_DIFF=0.6
TEXT -2008 -368 Left 2 ;- Input/Output ([Vs-] - 0.7V)-> ([Vs+] + 0.7)\n- Vid_max = 1 V\nSOURCES:\n- Using differential sources in ltspice: https://www.youtube.com/watch?v=o5SBtzoKLpM
